<?xml version="1.0" encoding="UTF-8"?>

<!-- generated on Thu May  2 15:47:02 2019 by Eclipse SUMO duarouter Version 1.2.0
<configuration xmlns:xsi="http://www.w3.org/2001/XMLSchema-instance" xsi:noNamespaceSchemaLocation="http://sumo.dlr.de/xsd/duarouterConfiguration.xsd">

    <input>
        <net-file value="grid.net.xml"/>
        <route-files value="trips.trips.xml"/>
    </input>

    <output>
        <output-file value="grid.rou.xml"/>
        <alternatives-output value="grid.rou.alt.xml"/>
    </output>

    <time>
        <begin value="0"/>
        <end value="5000.0"/>
    </time>

    <report>
        <no-warnings value="true"/>
        <ignore-errors value="true"/>
        <no-step-log value="true"/>
    </report>

</configuration>
-->

<routes xmlns:xsi="http://www.w3.org/2001/XMLSchema-instance" xsi:noNamespaceSchemaLocation="http://sumo.dlr.de/xsd/routes_file.xsd">
    <vehicle id="0" depart="0.00">
        <route edges="F2G2 G2F2 F2E2 E2D2 D2C2 C2C3 C3C4 C4C5 C5C6 C6D6"/>
    </vehicle>
    <vehicle id="1" depart="1.00">
        <route edges="H5H4 H4G4 G4F4 F4E4 E4D4 D4D5 D5D6 D6D7"/>
    </vehicle>
    <vehicle id="2" depart="2.00">
        <route edges="H1H2 H2H3 H3H4 H4H5 H5H6 H6G6 G6F6 F6E6 E6D6 D6C6 C6B6 B6A6"/>
    </vehicle>
    <vehicle id="3" depart="3.00">
        <route edges="E2E3 E3E2 E2E1 E1E0 E0D0"/>
    </vehicle>
    <vehicle id="4" depart="4.00">
        <route edges="E5D5 D5E5 E5F5 F5F4"/>
    </vehicle>
    <vehicle id="5" depart="5.00">
        <route edges="G2G1 G1F1 F1E1 E1D1 D1C1 C1C2 C2C3 C3C4"/>
    </vehicle>
    <vehicle id="6" depart="6.00">
        <route edges="H2H1 H1G1 G1F1 F1E1 E1D1 D1D2 D2D3 D3D4 D4D5 D5D6 D6C6"/>
    </vehicle>
    <vehicle id="7" depart="7.00">
        <route edges="E7E6 E6E5 E5E4 E4E3 E3E2 E2E1 E1E0 E0D0 D0C0 C0B0"/>
    </vehicle>
    <vehicle id="8" depart="8.00">
        <route edges="B0A0 A0A1 A1B1 B1C1 C1C0 C0C1"/>
    </vehicle>
    <vehicle id="9" depart="9.00">
        <route edges="E5E6 E6F6 F6F5 F5F4 F4F3 F3E3"/>
    </vehicle>
    <vehicle id="10" depart="10.00">
        <route edges="C3C2 C2C1 C1C2"/>
    </vehicle>
    <vehicle id="11" depart="11.00">
        <route edges="C6C5 C5C4 C4C3 C3C2 C2C1 C1C0 C0D0 D0C0"/>
    </vehicle>
    <vehicle id="12" depart="12.00">
        <route edges="E6F6 F6F5 F5F4 F4F3 F3E3 E3E2 E2D2 D2D1 D1C1 C1D1"/>
    </vehicle>
    <vehicle id="13" depart="13.00">
        <route edges="F6F5 F5E5 E5E4 E4D4 D4C4 C4B4 B4B5"/>
    </vehicle>
    <vehicle id="14" depart="14.00">
        <route edges="G5G4 G4G5 G5H5 H5G5"/>
    </vehicle>
    <vehicle id="15" depart="15.00">
        <route edges="G2G3 G3G2 G2F2 F2F1 F1E1 E1D1 D1C1 C1B1 B1B2"/>
    </vehicle>
    <vehicle id="16" depart="16.00">
        <route edges="E4E5 E5E4 E4E3 E3E2 E2F2"/>
    </vehicle>
    <vehicle id="17" depart="17.00">
        <route edges="E4F4 F4E4 E4D4 D4D5 D5C5"/>
    </vehicle>
    <vehicle id="18" depart="18.00">
        <route edges="D4D5 D5E5 E5E6 E6F6 F6G6 G6G5"/>
    </vehicle>
    <vehicle id="19" depart="19.00">
        <route edges="F1F0 F0E0 E0D0 D0C0 C0B0 B0A0 A0A1 A1B1"/>
    </vehicle>
    <vehicle id="20" depart="20.00">
        <route edges="G6G7 G7F7 F7E7 E7D7 D7C7 C7C6 C6C5 C5B5"/>
    </vehicle>
    <vehicle id="21" depart="21.00">
        <route edges="E4E5 E5D5 D5C5 C5B5 B5A5"/>
    </vehicle>
    <vehicle id="22" depart="22.00">
        <route edges="G4H4 H4H3 H3G3 G3G2 G2F2 F2E2 E2D2 D2C2"/>
    </vehicle>
    <vehicle id="23" depart="23.00">
        <route edges="A7B7 B7C7 C7D7 D7E7 E7F7 F7G7 G7G6 G6G5 G5G4 G4G3 G3G2 G2G3"/>
    </vehicle>
    <vehicle id="24" depart="24.00">
        <route edges="F4G4 G4G5 G5H5"/>
    </vehicle>
    <vehicle id="25" depart="25.00">
        <route edges="F4F5 F5F4 F4F3 F3F2 F2F1 F1F0"/>
    </vehicle>
    <vehicle id="26" depart="26.00">
        <route edges="D7C7 C7D7 D7E7 E7F7 F7G7 G7G6 G6G5"/>
    </vehicle>
    <vehicle id="27" depart="27.00">
        <route edges="F4F3 F3G3 G3H3 H3G3"/>
    </vehicle>
    <vehicle id="28" depart="28.00">
        <route edges="H3H4 H4H3 H3H2 H2H1 H1H0 H0G0 G0F0 F0E0 E0D0 D0E0"/>
    </vehicle>
    <vehicle id="29" depart="29.00">
        <route edges="E0F0 F0E0 E0E1 E1E2 E2E3 E3E4 E4E5 E5F5"/>
    </vehicle>
    <vehicle id="30" depart="30.00">
        <route edges="A2B2 B2B3 B3B4 B4B5 B5C5 C5C6"/>
    </vehicle>
    <vehicle id="31" depart="31.00">
        <route edges="G1F1 F1E1 E1E2 E2D2"/>
    </vehicle>
    <vehicle id="32" depart="32.00">
        <route edges="F3G3 G3G2 G2G1 G1G0 G0F0 F0E0 E0D0"/>
    </vehicle>
    <vehicle id="33" depart="33.00">
        <route edges="B7C7 C7D7 D7E7 E7F7 F7G7 G7H7 H7H6 H6H5 H5H4 H4H3 H3H2 H2H3"/>
    </vehicle>
    <vehicle id="34" depart="34.00">
        <route edges="C5D5 D5D4 D4D3 D3D2 D2C2 C2C1 C1B1"/>
    </vehicle>
    <vehicle id="35" depart="35.00">
        <route edges="C2B2 B2B3 B3B4 B4B5 B5C5 C5C6 C6D6 D6C6"/>
    </vehicle>
    <vehicle id="36" depart="36.00">
        <route edges="E0E1 E1E2 E2F2 F2F3 F3F4 F4F5 F5G5 G5G6 G6H6 H6H7"/>
    </vehicle>
    <vehicle id="37" depart="37.00">
        <route edges="E2E1 E1E2 E2E3 E3E4 E4F4"/>
    </vehicle>
    <vehicle id="38" depart="38.00">
        <route edges="H4G4 G4G3 G3G2 G2F2 F2G2"/>
    </vehicle>
    <vehicle id="39" depart="39.00">
        <route edges="H6H7 H7G7 G7G6 G6G5 G5G4 G4G3 G3G2 G2G1 G1F1"/>
    </vehicle>
    <vehicle id="40" depart="40.00">
        <route edges="F3F2 F2E2 E2E3 E3E2"/>
    </vehicle>
    <vehicle id="41" depart="41.00">
        <route edges="E4E3 E3E4 E4E5 E5E6"/>
    </vehicle>
    <vehicle id="42" depart="42.00">
        <route edges="F1F2 F2F3 F3G3 G3G4 G4G5 G5G6 G6H6 H6H7 H7G7"/>
    </vehicle>
    <vehicle id="43" depart="43.00">
        <route edges="B1A1 A1A2 A2B2 B2C2 C2C3"/>
    </vehicle>
    <vehicle id="44" depart="44.00">
        <route edges="F1F0 F0G0 G0G1"/>
    </vehicle>
    <vehicle id="45" depart="45.00">
        <route edges="D3D2 D2D3 D3D4 D4D5 D5D6 D6E6 E6E5"/>
    </vehicle>
    <vehicle id="46" depart="46.00">
        <route edges="D1E1 E1D1 D1C1 C1B1 B1A1 A1A2 A2A1"/>
    </vehicle>
    <vehicle id="47" depart="47.00">
        <route edges="F6G6 G6H6"/>
    </vehicle>
    <vehicle id="48" depart="48.00">
        <route edges="F0G0 G0F0 F0E0 E0D0 D0D1 D1D2"/>
    </vehicle>
    <vehicle id="49" depart="49.00">
        <route edges="D2D3 D3E3"/>
    </vehicle>
    <vehicle id="50" depart="50.00">
        <route edges="D3C3 C3B3 B3A3 A3A4 A4A5 A5A6 A6B6"/>
    </vehicle>
    <vehicle id="51" depart="51.00">
        <route edges="D5D4 D4D5 D5D6 D6D7 D7E7 E7F7 F7G7 G7H7 H7H6"/>
    </vehicle>
    <vehicle id="52" depart="52.00">
        <route edges="B7A7 A7A6 A6A5 A5A4 A4B4 B4C4"/>
    </vehicle>
    <vehicle id="53" depart="53.00">
        <route edges="G6G5 G5F5 F5F6 F6F7 F7E7 E7D7 D7C7 C7B7 B7A7 A7A6"/>
    </vehicle>
    <vehicle id="54" depart="54.00">
        <route edges="C6C5 C5C4 C4C3 C3C2 C2C1 C1D1 D1D2"/>
    </vehicle>
    <vehicle id="55" depart="55.00">
        <route edges="H0G0 G0F0 F0F1 F1F0"/>
    </vehicle>
    <vehicle id="56" depart="56.00">
        <route edges="H2H3 H3H4 H4H5 H5G5 G5F5 F5E5 E5E6"/>
    </vehicle>
    <vehicle id="57" depart="57.00">
        <route edges="C5C6 C6D6 D6E6 E6F6 F6F5 F5F4 F4F3 F3F2 F2E2"/>
    </vehicle>
    <vehicle id="58" depart="58.00">
        <route edges="H0H1 H1H2 H2H3 H3H4 H4G4 G4F4 F4E4 E4D4 D4D5 D5E5"/>
    </vehicle>
    <vehicle id="59" depart="59.00">
        <route edges="H2H3 H3H2 H2G2 G2G1"/>
    </vehicle>
    <vehicle id="60" depart="60.00">
        <route edges="H4H5 H5H4 H4G4 G4G3 G3F3 F3E3 E3D3 D3D2"/>
    </vehicle>
    <vehicle id="61" depart="61.00">
        <route edges="G4G5 G5G4 G4F4 F4F3 F3E3 E3E2 E2D2 D2C2 C2B2 B2A2 A2A1"/>
    </vehicle>
    <vehicle id="62" depart="62.00">
        <route edges="G1F1 F1E1 E1E2 E2E3 E3E4 E4E5 E5E6 E6E5"/>
    </vehicle>
    <vehicle id="63" depart="63.00">
        <route edges="B1B0 B0C0 C0D0 D0E0 E0F0 F0G0 G0G1 G1H1 H1H0 H0G0"/>
    </vehicle>
    <vehicle id="64" depart="64.00">
        <route edges="C3D3 D3D4 D4E4 E4E5 E5F5"/>
    </vehicle>
    <vehicle id="65" depart="65.00">
        <route edges="F6G6 G6G5 G5F5 F5E5 E5D5 D5C5 C5B5 B5A5 A5A4"/>
    </vehicle>
    <vehicle id="66" depart="66.00">
        <route edges="A2A1 A1A2 A2A3 A3A4 A4B4 B4B5 B5C5 C5C6 C6D6 D6D5"/>
    </vehicle>
    <vehicle id="67" depart="67.00">
        <route edges="C2C3 C3D3 D3D2 D2D1 D1D0 D0E0 E0F0 F0G0 G0H0 H0H1"/>
    </vehicle>
    <vehicle id="68" depart="68.00">
        <route edges="A1A0 A0B0 B0C0 C0D0 D0E0 E0F0 F0F1 F1F2 F2F3 F3F4 F4G4 G4G3"/>
    </vehicle>
    <vehicle id="69" depart="69.00">
        <route edges="D6D7 D7E7 E7F7 F7G7 G7G6 G6G5 G5G4 G4F4"/>
    </vehicle>
    <vehicle id="70" depart="70.00">
        <route edges="C7C6 C6C5 C5C4 C4C3 C3D3 D3E3 E3F3 F3G3"/>
    </vehicle>
    <vehicle id="71" depart="71.00">
        <route edges="F4F3 F3G3 G3H3 H3H2"/>
    </vehicle>
    <vehicle id="72" depart="72.00">
        <route edges="A0A1 A1B1 B1B2 B2C2 C2C3 C3D3 D3D4 D4E4 E4F4 F4F5 F5G5 G5F5"/>
    </vehicle>
    <vehicle id="73" depart="73.00">
        <route edges="A1B1 B1B2 B2C2 C2C3 C3C4 C4D4 D4C4"/>
    </vehicle>
    <vehicle id="74" depart="74.00">
        <route edges="D4E4 E4D4 D4C4 C4B4 B4A4"/>
    </vehicle>
    <vehicle id="75" depart="75.00">
        <route edges="A0B0 B0B1 B1B2 B2B3 B3B4 B4B5 B5B4"/>
    </vehicle>
    <vehicle id="76" depart="76.00">
        <route edges="B5A5 A5B5 B5C5 C5C4 C4D4"/>
    </vehicle>
    <vehicle id="77" depart="77.00">
        <route edges="A4A5 A5B5 B5C5 C5D5 D5E5 E5F5 F5G5 G5H5 H5H4 H4G4"/>
    </vehicle>
    <vehicle id="78" depart="78.00">
        <route edges="C5D5 D5E5 E5D5"/>
    </vehicle>
    <vehicle id="79" depart="79.00">
        <route edges="C1C2 C2C1 C1C0 C0C1"/>
    </vehicle>
    <vehicle id="80" depart="80.00">
        <route edges="E3D3 D3D4 D4D5 D5D6 D6E6 E6E5"/>
    </vehicle>
    <vehicle id="81" depart="81.00">
        <route edges="D6D7 D7E7 E7F7 F7F6 F6F5 F5F4 F4F3 F3F2 F2F1 F1E1"/>
    </vehicle>
    <vehicle id="82" depart="82.00">
        <route edges="G3G2 G2F2 F2E2 E2E3 E3D3 D3C3"/>
    </vehicle>
    <vehicle id="83" depart="83.00">
        <route edges="G5G6 G6H6 H6H5 H5H4 H4H3 H3H4"/>
    </vehicle>
    <vehicle id="84" depart="84.00">
        <route edges="E4E3 E3D3 D3C3 C3C4 C4C5 C5C6"/>
    </vehicle>
    <vehicle id="85" depart="85.00">
        <route edges="D2D3 D3E3 E3F3 F3F2 F2F1 F1F2"/>
    </vehicle>
    <vehicle id="86" depart="86.00">
        <route edges="E7F7 F7G7 G7G6 G6G5 G5G4 G4G3"/>
    </vehicle>
    <vehicle id="87" depart="87.00">
        <route edges="B1A1 A1A2 A2B2 B2C2 C2D2 D2E2 E2F2 F2G2"/>
    </vehicle>
    <vehicle id="88" depart="88.00">
        <route edges="F2E2 E2D2 D2D3 D3D4 D4D3"/>
    </vehicle>
    <vehicle id="89" depart="89.00">
        <route edges="E1E2 E2F2 F2G2 G2G1 G1G0 G0F0"/>
    </vehicle>
    <vehicle id="90" depart="90.00">
        <route edges="A2B2 B2C2 C2D2 D2E2 E2E1 E1E2"/>
    </vehicle>
    <vehicle id="91" depart="91.00">
        <route edges="E2E3 E3F3 F3G3"/>
    </vehicle>
    <vehicle id="92" depart="92.00">
        <route edges="E5F5 F5F4 F4F3 F3F2 F2F1 F1E1"/>
    </vehicle>
    <vehicle id="93" depart="93.00">
        <route edges="E2D2 D2D3 D3D4 D4D5 D5E5 E5E6 E6F6 F6F5"/>
    </vehicle>
    <vehicle id="94" depart="94.00">
        <route edges="E6D6 D6D5 D5C5 C5C4 C4B4 B4A4 A4A3"/>
    </vehicle>
    <vehicle id="95" depart="95.00">
        <route edges="C4B4 B4C4 C4D4 D4E4 E4F4 F4F3 F3F2 F2F1"/>
    </vehicle>
    <vehicle id="96" depart="96.00">
        <route edges="C5C4 C4C5 C5C6 C6C5"/>
    </vehicle>
    <vehicle id="97" depart="97.00">
        <route edges="G3G2 G2F2 F2E2 E2D2 D2C2"/>
    </vehicle>
    <vehicle id="98" depart="98.00">
        <route edges="F6E6 E6E5 E5D5"/>
    </vehicle>
    <vehicle id="99" depart="99.00">
        <route edges="F0F1 F1F2 F2F3 F3F4 F4E4 E4D4 D4C4 C4B4 B4A4 A4A5 A5B5"/>
    </vehicle>
    <vehicle id="100" depart="100.00">
        <route edges="E5F5 F5E5 E5D5 D5D6 D6D5"/>
    </vehicle>
    <vehicle id="101" depart="101.00">
        <route edges="E2D2 D2D3 D3E3 E3E4 E4F4 F4G4 G4G5"/>
    </vehicle>
    <vehicle id="102" depart="102.00">
        <route edges="H5H6 H6H5 H5G5 G5F5 F5E5 E5D5 D5C5 C5B5 B5B4 B4A4 A4A5"/>
    </vehicle>
    <vehicle id="103" depart="103.00">
        <route edges="B2C2 C2B2 B2A2 A2A3"/>
    </vehicle>
    <vehicle id="104" depart="104.00">
        <route edges="H6H7 H7G7 G7G6 G6G5 G5F5"/>
    </vehicle>
    <vehicle id="105" depart="105.00">
        <route edges="B6B5 B5B4 B4B3 B3B2 B2C2 C2D2 D2E2 E2F2 F2F3"/>
    </vehicle>
    <vehicle id="106" depart="106.00">
        <route edges="A7A6 A6B6 B6C6 C6D6 D6E6 E6F6 F6E6"/>
    </vehicle>
    <vehicle id="107" depart="107.00">
        <route edges="D1C1 C1C2 C2D2 D2D3 D3E3 E3E4 E4F4 F4G4 G4F4"/>
    </vehicle>
    <vehicle id="108" depart="108.00">
        <route edges="G4G3 G3F3 F3F2 F2E2 E2E1 E1D1 D1C1 C1B1 B1A1 A1B1"/>
    </vehicle>
    <vehicle id="109" depart="109.00">
        <route edges="A3B3 B3C3 C3D3"/>
    </vehicle>
    <vehicle id="110" depart="110.00">
        <route edges="F5F4 F4G4 G4H4 H4H3 H3H2"/>
    </vehicle>
    <vehicle id="111" depart="111.00">
        <route edges="A6A7 A7B7 B7C7 C7D7 D7E7 E7F7 F7G7 G7G6 G6G5 G5G4 G4G3 G3G2 G2G1 G1F1"/>
    </vehicle>
    <vehicle id="112" depart="112.00">
        <route edges="H6G6 G6G5 G5F5 F5F4 F4E4 E4E3 E3D3 D3C3 C3B3 B3B2 B2A2"/>
    </vehicle>
    <vehicle id="113" depart="113.00">
        <route edges="A7A6 A6B6 B6C6 C6D6 D6E6 E6F6 F6G6 G6H6 H6H5 H5G5"/>
    </vehicle>
    <vehicle id="114" depart="114.00">
        <route edges="E4E3 E3E4 E4F4 F4G4 G4G3"/>
    </vehicle>
    <vehicle id="115" depart="115.00">
        <route edges="A2A1 A1B1 B1C1 C1D1 D1E1 E1F1 F1G1 G1H1 H1H0"/>
    </vehicle>
    <vehicle id="116" depart="116.00">
        <route edges="H6G6 G6G5 G5F5 F5F4 F4E4 E4D4 D4D3"/>
    </vehicle>
    <vehicle id="117" depart="117.00">
        <route edges="B4C4 C4D4 D4E4 E4F4 F4G4 G4G3 G3G2 G2G1 G1F1"/>
    </vehicle>
    <vehicle id="118" depart="118.00">
        <route edges="G1G0 G0G1 G1G2 G2G3 G3G4 G4F4"/>
    </vehicle>
    <vehicle id="119" depart="119.00">
        <route edges="E0F0 F0F1 F1F2 F2F3 F3F4 F4F5 F5G5 G5G4"/>
    </vehicle>
    <vehicle id="120" depart="120.00">
        <route edges="A6A7 A7B7 B7C7 C7C6 C6C5 C5C4 C4C3 C3C2"/>
    </vehicle>
    <vehicle id="121" depart="121.00">
        <route edges="D0E0 E0E1 E1E2 E2E3 E3E4 E4E3"/>
    </vehicle>
    <vehicle id="122" depart="122.00">
        <route edges="F1F2 F2F3 F3F4 F4F5 F5F6 F6E6 E6D6 D6C6 C6B6 B6A6"/>
    </vehicle>
    <vehicle id="123" depart="123.00">
        <route edges="A2A1 A1A2 A2B2 B2B3 B3C3 C3C4 C4D4 D4E4 E4F4 F4G4 G4H4"/>
    </vehicle>
    <vehicle id="124" depart="124.00">
        <route edges="F4G4 G4F4 F4F5 F5F6 F6F5"/>
    </vehicle>
    <vehicle id="125" depart="125.00">
        <route edges="E4E5 E5E4 E4D4 D4D3 D3C3 C3C2 C2B2 B2B1 B1A1 A1A0 A0B0"/>
    </vehicle>
    <vehicle id="126" depart="126.00">
        <route edges="D7D6 D6C6 C6C5 C5B5 B5B4 B4B3 B3B2"/>
    </vehicle>
    <vehicle id="127" depart="127.00">
        <route edges="G5G4 G4G3 G3F3 F3F2 F2E2 E2F2"/>
    </vehicle>
    <vehicle id="128" depart="128.00">
        <route edges="G3H3 H3G3 G3G4 G4G5 G5G6 G6G7 G7F7 F7E7"/>
    </vehicle>
    <vehicle id="129" depart="129.00">
        <route edges="D3E3 E3E4 E4E5 E5E6 E6E7 E7F7 F7G7 G7F7"/>
    </vehicle>
    <vehicle id="130" depart="130.00">
        <route edges="E2F2 F2F3 F3F4 F4F5 F5E5"/>
    </vehicle>
    <vehicle id="131" depart="131.00">
        <route edges="E2F2 F2E2 E2E3 E3E4 E4E5 E5D5 D5C5 C5B5"/>
    </vehicle>
    <vehicle id="132" depart="132.00">
        <route edges="E1F1 F1F2 F2F3 F3F4 F4F5 F5G5 G5F5"/>
    </vehicle>
    <vehicle id="133" depart="133.00">
        <route edges="A4A3 A3B3 B3C3 C3D3 D3E3 E3E2"/>
    </vehicle>
    <vehicle id="134" depart="134.00">
        <route edges="G5F5 F5E5 E5D5"/>
    </vehicle>
    <vehicle id="135" depart="135.00">
        <route edges="D5E5 E5F5 F5G5 G5H5 H5H4 H4H3 H3H2 H2G2"/>
    </vehicle>
    <vehicle id="136" depart="136.00">
        <route edges="E0F0 F0E0 E0D0 D0C0 C0B0 B0B1 B1B2 B2B3 B3B4"/>
    </vehicle>
    <vehicle id="137" depart="137.00">
        <route edges="B2A2 A2A3 A3A4 A4A5 A5B5 B5B6 B6C6 C6C5"/>
    </vehicle>
    <vehicle id="138" depart="138.00">
        <route edges="B7B6 B6B5 B5B4 B4B3 B3A3"/>
    </vehicle>
    <vehicle id="139" depart="139.00">
        <route edges="D6C6 C6B6 B6B5"/>
    </vehicle>
    <vehicle id="140" depart="140.00">
        <route edges="D2D3 D3E3 E3E2 E2E1 E1E0 E0F0 F0G0 G0H0"/>
    </vehicle>
    <vehicle id="141" depart="141.00">
        <route edges="A2B2 B2C2 C2C1 C1C0 C0C1"/>
    </vehicle>
    <vehicle id="142" depart="142.00">
        <route edges="E4E5 E5E6 E6E7 E7D7 D7C7 C7B7 B7A7 A7A6"/>
    </vehicle>
    <vehicle id="143" depart="143.00">
        <route edges="E6E7 E7F7 F7F6 F6F7"/>
    </vehicle>
    <vehicle id="144" depart="144.00">
        <route edges="E2D2 D2D3 D3D4 D4D5 D5D6 D6D7 D7E7 E7F7 F7G7 G7H7"/>
    </vehicle>
    <vehicle id="145" depart="145.00">
        <route edges="A7B7 B7C7 C7D7 D7E7 E7F7 F7F6 F6F5 F5F4 F4F3 F3G3"/>
    </vehicle>
    <vehicle id="146" depart="146.00">
        <route edges="E4F4 F4E4 E4E5 E5E6 E6E7 E7D7"/>
    </vehicle>
    <vehicle id="147" depart="147.00">
        <route edges="D2E2 E2E1 E1D1 D1C1 C1B1 B1A1 A1A0"/>
    </vehicle>
    <vehicle id="148" depart="148.00">
        <route edges="G6H6 H6H5 H5G5 G5H5"/>
    </vehicle>
    <vehicle id="149" depart="149.00">
        <route edges="E4F4 F4E4 E4E5 E5E6 E6E7 E7E6"/>
    </vehicle>
    <vehicle id="150" depart="150.00">
        <route edges="B3C3 C3C2 C2C1 C1B1 B1B2"/>
    </vehicle>
    <vehicle id="151" depart="151.00">
        <route edges="E4E3 E3E2 E2E1 E1F1 F1F2"/>
    </vehicle>
    <vehicle id="152" depart="152.00">
        <route edges="C4D4 D4E4 E4E3 E3E2"/>
    </vehicle>
    <vehicle id="153" depart="153.00">
        <route edges="F1E1 E1D1 D1C1 C1B1 B1B2 B2B1"/>
    </vehicle>
    <vehicle id="154" depart="154.00">
        <route edges="A0B0 B0A0 A0A1 A1A2 A2A1"/>
    </vehicle>
    <vehicle id="155" depart="155.00">
        <route edges="D2C2 C2B2 B2B3 B3B4 B4B5 B5B6 B6A6"/>
    </vehicle>
    <vehicle id="156" depart="156.00">
        <route edges="B3B4 B4C4 C4D4 D4D3 D3D2 D2D1 D1C1"/>
    </vehicle>
    <vehicle id="157" depart="157.00">
        <route edges="C2C1 C1C2 C2C3 C3C4 C4D4 D4D5 D5E5 E5E6"/>
    </vehicle>
    <vehicle id="158" depart="158.00">
        <route edges="H3G3 G3F3 F3F2 F2E2 E2D2 D2C2 C2B2 B2C2"/>
    </vehicle>
    <vehicle id="159" depart="159.00">
        <route edges="F7G7 G7G6 G6G5 G5G4 G4F4 F4F3 F3F2 F2F1 F1E1 E1F1"/>
    </vehicle>
    <vehicle id="160" depart="160.00">
        <route edges="A1A0 A0B0 B0A0 A0A1 A1A2 A2A3 A3A4 A4A5"/>
    </vehicle>
    <vehicle id="161" depart="161.00">
        <route edges="G4G3 G3F3 F3F2 F2E2 E2D2 D2C2 C2B2 B2A2 A2A1"/>
    </vehicle>
    <vehicle id="162" depart="162.00">
        <route edges="D4C4 C4C5 C5D5 D5D6 D6E6 E6F6 F6G6 G6F6"/>
    </vehicle>
    <vehicle id="163" depart="163.00">
        <route edges="G2F2 F2E2 E2D2 D2D3 D3E3"/>
    </vehicle>
    <vehicle id="164" depart="164.00">
        <route edges="E3E4 E4E3 E3E2 E2F2"/>
    </vehicle>
    <vehicle id="165" depart="165.00">
        <route edges="G2G1 G1F1 F1E1 E1D1 D1C1 C1C2 C2C1"/>
    </vehicle>
    <vehicle id="166" depart="166.00">
        <route edges="F2F3 F3F2 F2E2 E2F2"/>
    </vehicle>
    <vehicle id="167" depart="167.00">
        <route edges="A0B0 B0C0 C0D0 D0D1 D1D2 D2D3 D3D4 D4E4 E4D4"/>
    </vehicle>
    <vehicle id="168" depart="168.00">
        <route edges="C2D2 D2C2 C2C3 C3B3"/>
    </vehicle>
    <vehicle id="169" depart="169.00">
        <route edges="E1F1 F1F2 F2F3 F3F4 F4F5 F5G5 G5G6"/>
    </vehicle>
    <vehicle id="170" depart="170.00">
        <route edges="F5E5 E5D5 D5D6 D6D7 D7E7"/>
    </vehicle>
    <vehicle id="171" depart="171.00">
        <route edges="B6A6 A6B6 B6B5 B5B4 B4C4"/>
    </vehicle>
    <vehicle id="172" depart="172.00">
        <route edges="B0A0 A0A1 A1B1 B1B2 B2C2 C2C3 C3D3 D3D4 D4E4 E4E5 E5F5 F5F6 F6G6 G6H6 H6H7 H7G7"/>
    </vehicle>
    <vehicle id="173" depart="173.00">
        <route edges="E5E4 E4E3 E3F3 F3F4"/>
    </vehicle>
    <vehicle id="174" depart="174.00">
        <route edges="F6F5 F5F4 F4G4"/>
    </vehicle>
    <vehicle id="175" depart="175.00">
        <route edges="A4A5 A5B5 B5C5 C5D5 D5E5 E5F5 F5G5 G5G4 G4H4"/>
    </vehicle>
    <vehicle id="176" depart="176.00">
        <route edges="H7G7 G7F7 F7F6 F6F5 F5F4"/>
    </vehicle>
    <vehicle id="177" depart="177.00">
        <route edges="B3A3 A3B3 B3C3 C3D3 D3E3 E3F3 F3G3 G3H3 H3G3"/>
    </vehicle>
    <vehicle id="178" depart="178.00">
        <route edges="E6E7 E7E6 E6E5 E5E4 E4E3 E3E2 E2E1 E1E0 E0D0 D0C0 C0C1"/>
    </vehicle>
    <vehicle id="179" depart="179.00">
        <route edges="E2E1 E1E2 E2E3 E3E4 E4F4 F4F5 F5G5 G5G6 G6H6 H6H7 H7G7"/>
    </vehicle>
    <vehicle id="180" depart="180.00">
        <route edges="D7C7 C7D7 D7E7 E7F7 F7F6 F6F5 F5F4 F4F3 F3F2 F2F1 F1E1"/>
    </vehicle>
    <vehicle id="181" depart="181.00">
        <route edges="C7C6 C6D6 D6D5 D5C5"/>
    </vehicle>
    <vehicle id="182" depart="182.00">
        <route edges="H2H1 H1G1 G1F1 F1F2 F2F3 F3F4 F4F3"/>
    </vehicle>
    <vehicle id="183" depart="183.00">
        <route edges="A0B0 B0C0 C0D0 D0E0 E0F0 F0G0 G0H0 H0H1 H1H2 H2H3"/>
    </vehicle>
    <vehicle id="184" depart="184.00">
        <route edges="G3F3 F3F4 F4F5 F5F6 F6E6 E6D6 D6C6 C6B6 B6A6"/>
    </vehicle>
    <vehicle id="185" depart="185.00">
        <route edges="B7C7 C7D7 D7D6 D6D5 D5D4 D4D3 D3D2 D2D1 D1E1"/>
    </vehicle>
    <vehicle id="186" depart="186.00">
        <route edges="H6H7 H7G7 G7F7 F7F6 F6F5 F5F4 F4F3 F3E3 E3F3"/>
    </vehicle>
    <vehicle id="187" depart="187.00">
        <route edges="C7D7 D7D6 D6C6 C6D6"/>
    </vehicle>
    <vehicle id="188" depart="188.00">
        <route edges="D6D5 D5C5 C5C6 C6C7 C7C6"/>
    </vehicle>
    <vehicle id="189" depart="189.00">
        <route edges="D7E7 E7E6 E6E5 E5E4 E4D4 D4D3 D3D2 D2C2 C2C1 C1B1 B1B2"/>
    </vehicle>
    <vehicle id="190" depart="190.00">
        <route edges="C7C6 C6C5 C5C4 C4C3 C3C2 C2C1 C1C0 C0D0 D0E0 E0F0 F0G0 G0F0"/>
    </vehicle>
    <vehicle id="191" depart="191.00">
        <route edges="G3G2 G2G1 G1G0"/>
    </vehicle>
    <vehicle id="192" depart="192.00">
        <route edges="G5G6 G6G5 G5F5 F5F4 F4E4 E4E3 E3D3 D3C3"/>
    </vehicle>
    <vehicle id="193" depart="193.00">
        <route edges="G7G6 G6F6 F6E6 E6D6 D6C6 C6C7 C7C6"/>
    </vehicle>
    <vehicle id="194" depart="194.00">
        <route edges="A6A5 A5B5 B5C5 C5D5 D5E5 E5F5 F5G5 G5H5 H5H4 H4G4"/>
    </vehicle>
    <vehicle id="195" depart="195.00">
        <route edges="G3H3 H3H2 H2G2 G2F2 F2E2 E2D2 D2C2 C2B2 B2B1"/>
    </vehicle>
    <vehicle id="196" depart="196.00">
        <route edges="E6F6 F6G6 G6G5 G5G4 G4G3 G3G2 G2H2"/>
    </vehicle>
    <vehicle id="197" depart="197.00">
        <route edges="C5C6 C6D6 D6E6 E6F6 F6G6 G6G5 G5G4 G4G3 G3H3"/>
    </vehicle>
    <vehicle id="198" depart="198.00">
        <route edges="B7B6 B6B5 B5B4 B4A4 A4A5"/>
    </vehicle>
    <vehicle id="199" depart="199.00">
        <route edges="C4C3 C3C4 C4C5 C5C6 C6C7 C7D7 D7E7 E7F7 F7G7 G7F7"/>
    </vehicle>
    <vehicle id="200" depart="200.00">
        <route edges="A6A7 A7B7 B7C7 C7D7 D7E7 E7F7 F7F6 F6F5 F5F4 F4F3 F3F2 F2G2"/>
    </vehicle>
    <vehicle id="201" depart="201.00">
        <route edges="C6D6 D6E6 E6F6 F6G6 G6H6 H6H5 H5H6"/>
    </vehicle>
    <vehicle id="202" depart="202.00">
        <route edges="A3B3 B3C3 C3C2 C2C1 C1D1 D1E1"/>
    </vehicle>
    <vehicle id="203" depart="203.00">
        <route edges="G0H0 H0H1 H1H2 H2H3 H3H4 H4G4 G4G5"/>
    </vehicle>
    <vehicle id="204" depart="204.00">
        <route edges="E5D5 D5C5 C5C4"/>
    </vehicle>
    <vehicle id="205" depart="205.00">
        <route edges="C3B3 B3C3 C3D3 D3D2 D2E2 E2F2"/>
    </vehicle>
    <vehicle id="206" depart="206.00">
        <route edges="C2B2 B2B3 B3C3 C3C4 C4D4 D4D5 D5E5 E5F5 F5G5 G5G4"/>
    </vehicle>
    <vehicle id="207" depart="207.00">
        <route edges="H1H2 H2H1 H1G1 G1F1 F1E1 E1E2"/>
    </vehicle>
    <vehicle id="208" depart="208.00">
        <route edges="G6G7 G7G6 G6G5 G5G4 G4G3 G3G2 G2F2"/>
    </vehicle>
    <vehicle id="209" depart="209.00">
        <route edges="D5C5 C5D5 D5E5 E5F5 F5G5 G5H5 H5H4 H4H5"/>
    </vehicle>
    <vehicle id="210" depart="210.00">
        <route edges="G1G2 G2G3 G3G4 G4G5 G5G6 G6G7 G7F7 F7E7"/>
    </vehicle>
    <vehicle id="211" depart="211.00">
        <route edges="H3H2 H2G2 G2G3 G3G2"/>
    </vehicle>
    <vehicle id="212" depart="212.00">
        <route edges="B5B6 B6C6 C6D6 D6E6 E6F6 F6G6 G6H6 H6H5 H5H4"/>
    </vehicle>
    <vehicle id="213" depart="213.00">
        <route edges="F4F3 F3E3 E3D3 D3C3 C3B3 B3A3"/>
    </vehicle>
    <vehicle id="214" depart="214.00">
        <route edges="C2C1 C1C2 C2D2 D2D3 D3E3 E3E4 E4F4 F4F5 F5G5 G5H5"/>
    </vehicle>
    <vehicle id="215" depart="215.00">
        <route edges="C1D1 D1D2 D2E2 E2E3 E3E4 E4F4 F4F5 F5G5 G5F5"/>
    </vehicle>
    <vehicle id="216" depart="216.00">
        <route edges="B3B2 B2B3 B3C3 C3C4 C4D4 D4E4"/>
    </vehicle>
    <vehicle id="217" depart="217.00">
        <route edges="D3D2 D2D3 D3E3 E3F3 F3E3"/>
    </vehicle>
    <vehicle id="218" depart="218.00">
        <route edges="C1D1 D1C1 C1B1 B1A1 A1A2 A2A3 A3A4"/>
    </vehicle>
    <vehicle id="219" depart="219.00">
        <route edges="D0C0 C0C1 C1D1 D1D2 D2E2 E2E3 E3F3 F3G3 G3H3"/>
    </vehicle>
    <vehicle id="220" depart="220.00">
        <route edges="A4A3 A3A2 A2A1 A1A0 A0B0 B0C0 C0D0 D0E0 E0E1"/>
    </vehicle>
    <vehicle id="221" depart="221.00">
        <route edges="D6D7 D7E7 E7F7 F7G7 G7G6 G6G5 G5G4 G4G3 G3G2 G2G1 G1G2"/>
    </vehicle>
    <vehicle id="222" depart="222.00">
        <route edges="G3H3 H3G3 G3G4 G4G5 G5G6 G6G7 G7F7"/>
    </vehicle>
    <vehicle id="223" depart="223.00">
        <route edges="B3B2 B2B3 B3C3 C3D3 D3E3 E3F3 F3G3 G3G4"/>
    </vehicle>
    <vehicle id="224" depart="224.00">
        <route edges="C6D6 D6E6 E6F6 F6G6 G6H6 H6H5 H5H4 H4H5"/>
    </vehicle>
    <vehicle id="225" depart="225.00">
        <route edges="H7H6 H6G6 G6F6 F6F5 F5E5 E5D5 D5E5"/>
    </vehicle>
    <vehicle id="226" depart="226.00">
        <route edges="D7D6 D6D5 D5D4 D4E4 E4F4 F4G4 G4H4"/>
    </vehicle>
    <vehicle id="227" depart="227.00">
        <route edges="C7D7 D7C7 C7B7 B7A7"/>
    </vehicle>
    <vehicle id="228" depart="228.00">
        <route edges="H4H3 H3G3 G3F3 F3E3 E3D3 D3C3 C3B3 B3B4 B4C4"/>
    </vehicle>
    <vehicle id="229" depart="229.00">
        <route edges="E4F4 F4E4 E4D4 D4C4 C4D4"/>
    </vehicle>
    <vehicle id="230" depart="230.00">
        <route edges="A0B0 B0C0 C0B0"/>
    </vehicle>
    <vehicle id="231" depart="231.00">
        <route edges="A5A4 A4A5 A5A6 A6B6"/>
    </vehicle>
    <vehicle id="232" depart="232.00">
        <route edges="F5G5 G5F5 F5E5 E5D5 D5C5 C5B5 B5A5 A5B5"/>
    </vehicle>
    <vehicle id="233" depart="233.00">
        <route edges="H6H5 H5G5 G5G4 G4F4 F4F3 F3E3 E3D3"/>
    </vehicle>
    <vehicle id="234" depart="234.00">
        <route edges="E7D7 D7D6 D6D5 D5D4"/>
    </vehicle>
    <vehicle id="235" depart="235.00">
        <route edges="G1G2 G2F2 F2E2 E2F2"/>
    </vehicle>
    <vehicle id="236" depart="236.00">
        <route edges="F5F6 F6F5 F5E5 E5E4 E4E3 E3D3 D3D2"/>
    </vehicle>
    <vehicle id="237" depart="237.00">
        <route edges="B1C1 C1B1 B1B2 B2B3 B3B4 B4B5 B5B6 B6B7 B7C7"/>
    </vehicle>
    <vehicle id="238" depart="238.00">
        <route edges="B1C1 C1C0 C0D0 D0E0 E0F0 F0E0"/>
    </vehicle>
    <vehicle id="239" depart="239.00">
        <route edges="A0B0 B0C0 C0C1 C1C2 C2C3 C3C4 C4D4 D4C4"/>
    </vehicle>
    <vehicle id="240" depart="240.00">
        <route edges="G0F0 F0E0 E0D0 D0C0 C0B0 B0B1 B1B2 B2B3 B3C3"/>
    </vehicle>
    <vehicle id="241" depart="241.00">
        <route edges="G5G6 G6G5 G5F5 F5F4 F4F3 F3E3 E3E2 E2D2 D2D1 D1C1 C1C2"/>
    </vehicle>
    <vehicle id="242" depart="242.00">
        <route edges="C4D4 D4D5 D5D6 D6D7 D7E7 E7F7 F7F6"/>
    </vehicle>
    <vehicle id="243" depart="243.00">
        <route edges="D3D4 D4E4 E4F4 F4F3 F3F2 F2F1 F1E1"/>
    </vehicle>
    <vehicle id="244" depart="244.00">
        <route edges="B7C7 C7D7 D7E7 E7F7 F7F6 F6G6"/>
    </vehicle>
    <vehicle id="245" depart="245.00">
        <route edges="D5C5 C5C6 C6D6 D6E6 E6F6 F6F5"/>
    </vehicle>
    <vehicle id="246" depart="246.00">
        <route edges="B2A2 A2B2 B2B1 B1B0 B0C0 C0D0 D0E0 E0F0 F0G0 G0F0"/>
    </vehicle>
    <vehicle id="247" depart="247.00">
        <route edges="H3G3 G3H3 H3H2 H2H1 H1G1"/>
    </vehicle>
    <vehicle id="248" depart="248.00">
        <route edges="E5F5 F5F4 F4F3 F3F2 F2F1 F1E1 E1E0"/>
    </vehicle>
    <vehicle id="249" depart="249.00">
        <route edges="C4C5 C5C6 C6C7 C7D7 D7E7 E7F7 F7F6"/>
    </vehicle>
    <vehicle id="250" depart="250.00">
        <route edges="G1F1 F1E1 E1D1 D1C1 C1C2 C2C3 C3C2"/>
    </vehicle>
    <vehicle id="251" depart="251.00">
        <route edges="F2E2 E2D2 D2D1 D1C1 C1B1"/>
    </vehicle>
    <vehicle id="252" depart="252.00">
        <route edges="C2C3 C3D3 D3E3 E3F3 F3F2 F2F1 F1F0"/>
    </vehicle>
    <vehicle id="253" depart="253.00">
        <route edges="B3A3 A3A4 A4A5 A5A6 A6B6 B6B5"/>
    </vehicle>
    <vehicle id="254" depart="254.00">
        <route edges="D7C7 C7D7 D7E7 E7E6 E6E5 E5E4 E4E5"/>
    </vehicle>
    <vehicle id="255" depart="255.00">
        <route edges="G0H0 H0H1 H1H2 H2H3 H3G3 G3F3 F3E3"/>
    </vehicle>